*Heading
** Job name: GG1 Model name: GG1
** Generated by: Abaqus/CAE 2022
*Preprint, echo=NO, model=NO, history=NO, contact=NO
**
** PARTS
**
*Part, name=GG1
*Node
      1,   2271.86157,  -678.487549,    3.1500001
      2,   2271.86157,  -657.487549,    3.1500001
      3,   2271.86157,  -657.487549,  0.649999976
      4,   2271.86157,  -678.487549,  0.649999976
      5,   2274.16162,  -657.487549,    3.1500001
      6,   2274.16162,  -657.487549,  0.649999976
      7,   2274.16162,  -678.487549,  0.649999976
      8,   2274.16162,  -678.487549,    3.1500001
      9,   2310.86084,  -678.487549,  0.649999976
     10,   2310.86084,  -657.487549,  0.649999976
     11,   2313.16089,  -657.487549,  0.649999976
     12,   2313.16089,  -678.487549,  0.649999976
     13,   2310.86084,  -657.487549,    3.1500001
     14,   2313.16089,  -657.487549,    3.1500001
     15,   2313.16089,  -678.487549,    3.1500001
     16,   2310.86084,  -678.487549,    3.1500001
     17,   2154.86377,  -657.487549,  0.649999976
     18,   2157.16357,  -657.487549,  0.649999976
     19,   2157.16357,  -657.487549,    3.1500001
     20,   2154.86377,  -657.487549,    3.1500001
** ... 28350 like lines cut
*Element, type=C3D8R
  1,   487,  4821, 17031,  4813,     1,   377,  4713,   430
  2,  4821,  4822, 17032, 17031,   377,   378,  4714,  4713
  3,  4822,  4823, 17033, 17032,   378,   379,  4715,  4714
  4,  4823,  4824, 17034, 17033,   379,   380,  4716,  4715
  5,  4824,  4825, 17035, 17034,   380,   381,  4717,  4716
  6,  4825,  4826, 17036, 17035,   381,   382,  4718,  4717
  7,  4826,  4827, 17037, 17036,   382,   383,  4719,  4718
  8,  4827,  4828, 17038, 17037,   383,   384,  4720,  4719
  9,  4828,  4829, 17039, 17038,   384,   385,  4721,  4720
 10,  4829,  4830, 17040, 17039,   385,   386,  4722,  4721
 11,  4830,  4831, 17041, 17040,   386,   387,  4723,  4722
 12,  4831,  4832, 17042, 17041,   387,   388,  4724,  4723
 13,  4832,  4833, 17043, 17042,   388,   389,  4725,  4724
 14,  4833,  4834, 17044, 17043,   389,   390,  4726,  4725
 15,  4834,  4835, 17045, 17044,   390,   391,  4727,  4726
 16,  4835,  4836, 17046, 17045,   391,   392,  4728,  4727
 17,  4836,  4837, 17047, 17046,   392,   393,  4729,  4728
 18,  4837,  4838, 17048, 17047,   393,   394,  4730,  4729
 19,  4838,  4839, 17049, 17048,   394,   395,  4731,  4730
 20,  4839,  4840, 17050, 17049,   395,   396,  4732,  4731
** ... 18940 like lines cut
*Nset, nset=set_Ysym
    89,    90,    93,    96,   105,   106,   109,   112,   129,   130,   133,   136,   153,   154,   157,   160
   281,   282,   286,   288,   291,   292,   297,   299,   303,   304,   308,   310,   341,   342,   351,   352
   353,   354,   363,   364,  1657,  1658,  1659,  1660,  1661,  1662,  1663,  1664,  1665,  1666,  1667,  1668
  1669,  1670,  1671,  1672,  1673,  1674,  1675,  1676,  1677,  1678,  1679,  1680,  1681,  1709,  1710,  1711
  1712,  1713,  1714,  1715,  1716,  1717,  1718,  1719,  1720,  1721,  1722,  1723,  1724,  1725,  1726,  1727
  1728,  1729,  1730,  1731,  1732,  1733,  1763,  1764,  1767,  1768,  1889,  1890,  1891,  1892,  1893,  1894
  1895,  1896,  1897,  1898,  1899,  1900,  1901,  1902,  1903,  1904,  1905,  1906,  1907,  1908,  1909,  1910
  1911,  1912,  1913,  1941,  1942,  1943,  1944,  1945,  1946,  1947,  1948,  1949,  1950,  1951,  1952,  1953
  1954,  1955,  1956,  1957,  1958,  1959,  1960,  1961,  1962,  1963,  1964,  1965,  1995,  1996,  1999,  2000
  2241,  2242,  2243,  2244,  2245,  2246,  2247,  2248,  2249,  2250,  2251,  2252,  2253,  2254,  2255,  2256
  2257,  2258,  2259,  2260,  2261,  2262,  2263,  2264,  2265,  2293,  2294,  2295,  2296,  2297,  2298,  2299
  2300,  2301,  2302,  2303,  2304,  2305,  2306,  2307,  2308,  2309,  2310,  2311,  2312,  2313,  2314,  2315
  2316,  2317,  2347,  2348,  2351,  2352,  2593,  2594,  2595,  2596,  2597,  2598,  2599,  2600,  2601,  2602
  2603,  2604,  2605,  2606,  2607,  2608,  2609,  2610,  2611,  2612,  2613,  2614,  2615,  2616,  2617,  2645
  2646,  2647,  2648,  2649,  2650,  2651,  2652,  2653,  2654,  2655,  2656,  2657,  2658,  2659,  2660,  2661
  2662,  2663,  2664,  2665,  2666,  2667,  2668,  2669,  2699,  2700,  2703,  2704,  3853,  3854,  3855,  3856
  3857,  3858,  3859,  3860,  3861,  3862,  3863,  3864,  3893,  3894,  3895,  3896,  3897,  3898,  3899,  3900
  3901,  3902,  3903,  3904,  3905,  3906,  3907,  3908,  3935,  3936,  3937,  3938,  3939,  3940,  3941,  3942
  3943,  3944,  3945,  3946,  3947,  3948,  3949,  3950,  3951,  3952,  3953,  3954,  3955,  3956,  3990,  3991
  3992,  3993,  3994,  3995,  3996,  3997,  3998,  3999,  4000,  4001,  4002,  4003,  4004,  4005,  4006,  4007
** ... 43 like lines cut
*Elset, elset=set_Ysym
  2653,  2654,  2655,  2656,  2657,  2658,  2659,  2660,  2661,  2662,  2663,  2664,  2665,  2666,  2667,  2668
  2669,  2670,  2671,  2672,  2673,  2674,  2675,  2676,  2677,  2678,  2705,  2706,  2707,  2708,  2709,  2710
  2711,  2712,  2713,  2714,  2715,  2716,  2717,  2718,  2719,  2720,  2721,  2722,  2723,  2724,  2725,  2726
  2727,  2728,  2729,  2730,  2757,  2758,  2759,  2760,  2761,  2762,  2763,  2764,  2765,  2766,  2767,  2768
  2769,  2770,  2771,  2772,  2773,  2774,  2775,  2776,  2777,  2778,  2779,  2780,  2781,  2782,  3121,  3122
  3123,  3124,  3125,  3126,  3127,  3128,  3129,  3130,  3131,  3132,  3133,  3134,  3135,  3136,  3137,  3138
  3139,  3140,  3141,  3142,  3143,  3144,  3145,  3146,  3173,  3174,  3175,  3176,  3177,  3178,  3179,  3180
  3181,  3182,  3183,  3184,  3185,  3186,  3187,  3188,  3189,  3190,  3191,  3192,  3193,  3194,  3195,  3196
  3197,  3198,  3225,  3226,  3227,  3228,  3229,  3230,  3231,  3232,  3233,  3234,  3235,  3236,  3237,  3238
  3239,  3240,  3241,  3242,  3243,  3244,  3245,  3246,  3247,  3248,  3249,  3250,  3901,  3902,  3903,  3904
  3905,  3906,  3907,  3908,  3909,  3910,  3911,  3912,  3913,  3914,  3915,  3916,  3917,  3918,  3919,  3920
  3921,  3922,  3923,  3924,  3925,  3926,  3953,  3954,  3955,  3956,  3957,  3958,  3959,  3960,  3961,  3962
  3963,  3964,  3965,  3966,  3967,  3968,  3969,  3970,  3971,  3972,  3973,  3974,  3975,  3976,  3977,  3978
  4005,  4006,  4007,  4008,  4009,  4010,  4011,  4012,  4013,  4014,  4015,  4016,  4017,  4018,  4019,  4020
  4021,  4022,  4023,  4024,  4025,  4026,  4027,  4028,  4029,  4030,  4681,  4682,  4683,  4684,  4685,  4686
  4687,  4688,  4689,  4690,  4691,  4692,  4693,  4694,  4695,  4696,  4697,  4698,  4699,  4700,  4701,  4702
  4703,  4704,  4705,  4706,  4733,  4734,  4735,  4736,  4737,  4738,  4739,  4740,  4741,  4742,  4743,  4744
  4745,  4746,  4747,  4748,  4749,  4750,  4751,  4752,  4753,  4754,  4755,  4756,  4757,  4758,  4785,  4786
  4787,  4788,  4789,  4790,  4791,  4792,  4793,  4794,  4795,  4796,  4797,  4798,  4799,  4800,  4801,  4802
  4803,  4804,  4805,  4806,  4807,  4808,  4809,  4810, 13341, 13342, 13343, 13345, 13346, 13349, 13351, 13353
** ... 30 like lines cut
*Nset, nset=set_fixend
    17,    20,    23,    24,    45,    46,    47,    48,   211,   212,   215,   216,   282,   283,   288,   290
   367,   368,   373,   375,   615,   616,   623,   624,   625,   626,   627,   628,   629,   630,   631,   632
   633,   634,   635,   636,   637,   638,   639,   640,   641,   642,   643,   644,   645,   646,   647,   648
   649,   650,   651,   652,   653,   654,   655,   656,   657,   658,   659,   660,   661,   662,   663,   664
   665,   666,   667,   668,   669,   670,   671,   672,   673,   674,  1011,  1012,  1013,  1014,  1015,  1016
  1017,  1018,  1019,  1020,  1021,  1022,  1023,  1024,  1025,  1026,  1027,  1028,  1029,  1030,  1031,  1032
  1033,  1034,  1035,  1036,  1037,  1038,  1039,  1040,  1041,  1042,  1043,  1044,  1045,  1046,  1047,  1048
  1049,  1050,  1051,  1052,  1053,  1054,  1055,  1056,  1057,  1058,  1059,  1060,  1061,  1062,  1063,  1064
  3241,  3242,  3243,  3244,  3245,  3246,  3247,  3248,  3249,  3250,  3251,  3252,  3253,  3254,  3255,  3256
  3257,  3258,  3259,  3260,  3261,  3281,  3282,  3283,  3284,  3285,  3286,  3287,  3288,  3289,  3290,  3291
  3292,  3293,  3294,  3295,  3296,  3297,  3298,  3299,  3300,  3301,  3302,  3303,  3304,  3305,  3865,  3866
  3867,  3868,  3869,  3870,  3871,  3872,  3873,  3874,  3905,  3906,  3907,  3908,  3923,  3924,  3925,  3926
  3927,  3928,  3929,  3930,  3931,  3932,  4617,  4618,  4619,  4620,  4621,  4622,  4623,  4624,  4625,  4626
  4627,  4628,  4629,  4630,  4631,  4632,  4633,  4634,  4635,  4636,  4637,  4676,  4677,  4678,  4679,  4680
  4681,  4682,  4683,  4684,  4685,  4686,  4687,  4688,  4689,  4690,  4691,  4692,  4693,  4694,  4695,  4696
  5137,  5138,  5139,  5140,  5141,  5142,  5143,  5144,  5145,  5146,  5147,  5148,  5149,  5150,  5151,  5152
  5153,  5154,  5155,  5156,  5157,  5158,  5159,  5160,  5161,  5162,  5163,  5164,  5165,  5166,  5167,  5168
  5169,  5170,  5171,  5172,  5173,  5174,  5175,  5176,  5177,  5178,  5179,  5180,  5181,  5182,  5183,  5184
  5185,  5186,  5803,  5804,  5805,  5806,  5807,  5808,  5809,  5810,  5811,  5812,  5813,  5814,  5815,  5816
  5817,  5818,  5819,  5820,  5821,  5822,  5823,  5824,  5825,  5826,  5827,  5828,  5829,  5830,  5831,  5832
** ... 15 like lines cut
*Elset, elset=set_fixend
   469,   472,   475,   478,   481,   484,   487,   490,   493,   496,   499,   502,   505,   508,   511,   514
   517,   520,   523,   526,   529,   532,   535,   538,   541,   544,   547,   550,   553,   556,   559,   562
   565,   568,   571,   574,   577,   580,   583,   586,   589,   592,   595,   598,   601,   604,   607,   610
   613,   616,   619,   622,   625,   628,   631,   634,   637,   640,   643,   646,   649,   652,   655,   658
   661,   664,   667,   670,   673,   676,   679,   682,   685,   688,   691,   694,   697,   700,  1327,  1328
  1329,  1330,  1331,  1332,  1333,  1334,  1335,  1336,  1337,  1338,  1339,  1340,  1341,  1342,  1343,  1344
  1345,  1346,  1347,  1348,  1349,  1350,  1351,  1352,  1353,  1354,  1355,  1356,  1357,  1358,  1359,  1360
  1361,  1362,  1363,  1364,  1365,  1366,  1367,  1368,  1369,  1370,  1371,  1372,  1373,  1374,  1375,  1376
  1377,  1378,  1379,  1380,  1381,  1382,  1383,  1384,  1385,  1386,  1387,  1388,  1389,  1390,  1391,  1392
  1393,  1394,  1395,  1396,  1397,  1398,  1399,  1400,  1401,  1402,  1403,  1404,  7953,  7955,  7957,  7965
  7966,  7969,  7972,  7975,  7979,  7983,  7984,  8005,  8009,  8014,  8017,  8018,  8026,  8028,  8030,  8031
  8038,  8040,  8115,  8117,  8119,  8127,  8128,  8131,  8134,  8137,  8141,  8145,  8146,  8167,  8171,  8176
  8179,  8180,  8188,  8190,  8192,  8193,  8200,  8202,  8277,  8279,  8281,  8289,  8290,  8293,  8296,  8299
  8303,  8307,  8308,  8329,  8333,  8338,  8341,  8342,  8350,  8352,  8354,  8355,  8362,  8364,  8439,  8441
  8443,  8451,  8452,  8455,  8458,  8461,  8465,  8469,  8470,  8491,  8495,  8500,  8503,  8504,  8512,  8514
  8516,  8517,  8524,  8526,  8601,  8603,  8605,  8613,  8614,  8617,  8620,  8623,  8627,  8631,  8632,  8653
  8657,  8662,  8665,  8666,  8674,  8676,  8678,  8679,  8686,  8688, 13346, 13359, 13363, 13364, 13367, 13376
 13377, 13391, 13393, 13396, 13397, 13426, 13439, 13443, 13444, 13447, 13456, 13457, 13471, 13473, 13476, 13477
 13506, 13519, 13523, 13524, 13527, 13536, 13537, 13551, 13553, 13556, 13557, 13586, 13599, 13603, 13604, 13607
 13616, 13617, 13631, 13633, 13636, 13637, 13666, 13679, 13683, 13684, 13687, 13696, 13697, 13711, 13713, 13716
** ... 7 like lines cut
*Nset, nset=set_loadend
    11,    12,    14,    15,    59,    60,    62,    63,   241,   242,   243,   244,   304,   305,   310,   312
   317,   318,   321,   323,   520,   521,   522,   523,   524,   525,   526,   527,   528,   529,   530,   531
   532,   533,   534,   535,   536,   537,   538,   539,   540,   541,   542,   543,   544,   574,   575,   576
   577,   578,   579,   580,   581,   582,   583,   584,   585,   586,   587,   588,   589,   590,   591,   592
   593,   594,   595,   596,   597,   598,   601,   602,   605,   606,  1216,  1217,  1218,  1219,  1220,  1221
  1222,  1223,  1224,  1225,  1226,  1227,  1228,  1229,  1230,  1231,  1232,  1233,  1234,  1235,  1236,  1237
  1238,  1239,  1240,  1270,  1271,  1272,  1273,  1274,  1275,  1276,  1277,  1278,  1279,  1280,  1281,  1282
  1283,  1284,  1285,  1286,  1287,  1288,  1289,  1290,  1291,  1292,  1293,  1294,  1297,  1298,  1301,  1302
  3510,  3511,  3512,  3513,  3514,  3515,  3516,  3517,  3518,  3519,  3520,  3521,  3522,  3523,  3524,  3525
  3526,  3527,  3528,  3529,  3530,  3533,  3534,  3535,  3536,  3537,  3538,  3539,  3540,  3541,  3542,  3543
  3544,  3545,  3546,  3547,  3548,  3549,  3550,  3551,  3552,  3553,  4055,  4056,  4057,  4058,  4059,  4060
  4061,  4062,  4063,  4064,  4095,  4096,  4097,  4098,  4113,  4114,  4115,  4116,  4117,  4118,  4119,  4120
  4121,  4122,  4158,  4159,  4160,  4161,  4162,  4163,  4164,  4165,  4166,  4167,  4168,  4169,  4170,  4171
  4172,  4173,  4174,  4175,  4176,  4177,  4178,  4201,  4202,  4203,  4204,  4208,  4209,  4210,  4211,  4212
  4213,  4214,  4215,  4216,  4217,  4218,  4219,  4220,  4221,  4222,  4223,  4224,  4225,  4226,  4227,  4228
  5079,  5080,  5081,  5082,  5083,  5084,  5085,  5086,  5087,  5088,  5089,  5090,  5091,  5092,  5093,  5094
  5095,  5096,  5097,  5098,  5099,  5100,  5101,  5102,  5103,  5104,  5105,  5106,  5107,  5108,  5109,  5110
  5111,  5112,  5113,  5114,  5115,  5116,  5117,  5118,  5119,  5120,  5121,  5122,  5123,  5124,  5125,  5126
  5127,  5128,  6327,  6328,  6329,  6330,  6331,  6332,  6333,  6334,  6335,  6336,  6337,  6338,  6339,  6340
  6341,  6342,  6343,  6344,  6345,  6346,  6347,  6348,  6349,  6350,  6351,  6352,  6353,  6354,  6355,  6356
** ... 15 like lines cut
*Elset, elset=set_loadend
   287,   288,   289,   290,   291,   292,   293,   294,   295,   296,   297,   298,   299,   300,   301,   302
   303,   304,   305,   306,   307,   308,   309,   310,   311,   312,   365,   366,   367,   368,   369,   370
   371,   372,   373,   374,   375,   376,   377,   378,   379,   380,   381,   382,   383,   384,   385,   386
   387,   388,   389,   390,   443,   444,   445,   446,   447,   448,   449,   450,   451,   452,   453,   454
   455,   456,   457,   458,   459,   460,   461,   462,   463,   464,   465,   466,   467,   468,  1691,  1692
  1693,  1694,  1695,  1696,  1697,  1698,  1699,  1700,  1701,  1702,  1703,  1704,  1705,  1706,  1707,  1708
  1709,  1710,  1711,  1712,  1713,  1714,  1715,  1716,  1769,  1770,  1771,  1772,  1773,  1774,  1775,  1776
  1777,  1778,  1779,  1780,  1781,  1782,  1783,  1784,  1785,  1786,  1787,  1788,  1789,  1790,  1791,  1792
  1793,  1794,  1847,  1848,  1849,  1850,  1851,  1852,  1853,  1854,  1855,  1856,  1857,  1858,  1859,  1860
  1861,  1862,  1863,  1864,  1865,  1866,  1867,  1868,  1869,  1870,  1871,  1872, 10045, 10053, 10057, 10061
 10062, 10063, 10066, 10070, 10072, 10074, 10078, 10079, 10086, 10100, 10102, 10105, 10106, 10109, 10112, 10113
 10114, 10123, 10214, 10222, 10226, 10230, 10231, 10232, 10235, 10239, 10241, 10243, 10247, 10248, 10255, 10269
 10271, 10274, 10275, 10278, 10281, 10282, 10283, 10292, 10383, 10391, 10395, 10399, 10400, 10401, 10404, 10408
 10410, 10412, 10416, 10417, 10424, 10438, 10440, 10443, 10444, 10447, 10450, 10451, 10452, 10461, 10552, 10560
 10564, 10568, 10569, 10570, 10573, 10577, 10579, 10581, 10585, 10586, 10593, 10607, 10609, 10612, 10613, 10616
 10619, 10620, 10621, 10630, 10721, 10729, 10733, 10737, 10738, 10739, 10742, 10746, 10748, 10750, 10754, 10755
 10762, 10776, 10778, 10781, 10782, 10785, 10788, 10789, 10790, 10799, 14391, 14400, 14403, 14419, 14430, 14431
 14436, 14439, 14440, 14441, 14445, 14471, 14480, 14483, 14499, 14510, 14511, 14516, 14519, 14520, 14521, 14525
 14551, 14560, 14563, 14579, 14590, 14591, 14596, 14599, 14600, 14601, 14605, 14631, 14640, 14643, 14659, 14670
 14671, 14676, 14679, 14680, 14681, 14685, 14711, 14720, 14723, 14739, 14750, 14751, 14756, 14759, 14760, 14761
** ... 7 like lines cut
*Nset, nset=_PickedSet29, internal, generate
     1,  28370,      1
*Elset, elset=_PickedSet29, internal, generate
     1,  18960,      1
** Section: Section-1
*Solid Section, elset=_PickedSet29, material=mat_GG1
,
*End Part
**  
**
** ASSEMBLY
**
*Assembly, name=Assembly
**  
*Instance, name=GG1-1, part=GG1
-2154.863654,   609.824702,           0.
*End Instance
**  
*End Assembly
** 
** MATERIALS
** 
*Material, name=mat_GG1
*Elastic
1270., 0.3
*Plastic
    1.,        0.
   3.2, 0.0002024
  5.93, 0.0007604
  8.31, 0.0015984
 10.38, 0.0026605
 12.22, 0.0039045
 13.86, 0.0052978
 15.33, 0.0068148
 16.67, 0.0084355
 17.88, 0.0101436
 18.99, 0.0119258
 20.01, 0.0137713
 20.95, 0.0156712
 21.82, 0.0176179
 22.63, 0.0196052
 23.39, 0.0216276
 24.11, 0.0236806
 24.78, 0.0257603
 25.41, 0.0278633
   26., 0.0299867
** ... 13 like lines cut
** 
** BOUNDARY CONDITIONS
** 
** Name: BC_Ysym Type: Symmetry/Antisymmetry/Encastre
*Boundary
GG1-1.set_Ysym, YSYMM
** Name: BC_fixend Type: Symmetry/Antisymmetry/Encastre
*Boundary
GG1-1.set_fixend, PINNED
** Name: BC_loadend Type: Velocity/Angular velocity
*Boundary, type=VELOCITY
GG1-1.set_loadend, 1, 1
** ----------------------------------------------------------------
** 
** STEP: load
** 
*Step, name=load, nlgeom=YES, inc=200
*Static, stabilize, factor=0.002, allsdtol=0, continue=NO
1., 40., 1e-05, 2.
** 
** BOUNDARY CONDITIONS
** 
** Name: BC_loadend Type: Velocity/Angular velocity
*Boundary, type=VELOCITY
GG1-1.set_loadend, 1, 1, 0.52
** 
** OUTPUT REQUESTS
** 
*Restart, write, frequency=0
** 
** FIELD OUTPUT: F-Output-1
** 
*Output, field, variable=PRESELECT
** 
** HISTORY OUTPUT: H-Output-1
** 
*Output, history, variable=PRESELECT
*End Step
