*Heading
** Job name: GG2_damage Model name: GG2_damage
** Generated by: Abaqus/CAE 2022
*Preprint, echo=NO, model=NO, history=NO, contact=NO
**
** PARTS
**
*Part, name=SS40
*Node
      1,  -1002.62384,  -167.289093,   4.69999981
      2,  -1002.62384,  -167.289093,   1.10000002
      3,  -1002.62384,  -150.289093,   1.10000002
      4,  -1002.62384,  -150.289093,   4.69999981
      5,  -1004.82385,  -167.289093,   1.10000002
      6,  -1004.82385,  -150.289093,   1.10000002
      7,  -1004.82385,  -150.289093,   4.69999981
      8,  -1004.82385,  -167.289093,   4.69999981
      9,   -969.62384,  -167.289093,   4.69999981
     10,   -969.62384,  -167.289093,   1.10000002
     11,   -969.62384,  -150.289093,   1.10000002
     12,   -969.62384,  -150.289093,   4.69999981
     13,  -971.823853,  -167.289093,   1.10000002
     14,  -971.823853,  -150.289093,   1.10000002
     15,  -971.823853,  -150.289093,   4.69999981
     16,  -971.823853,  -167.289093,   4.69999981
     17,   -936.62384,  -167.289093,   4.69999981
     18,   -936.62384,  -167.289093,   1.10000002
     19,   -936.62384,  -150.289093,   1.10000002
     20,   -936.62384,  -150.289093,   4.69999981
** ... 18698 like lines cut
*Element, type=C3D8R
  1,   454,  3537, 11591,  3505,     1,   377,  3409,   414
  2,  3537,  3538, 11592, 11591,   377,   378,  3410,  3409
  3,  3538,  3539, 11593, 11592,   378,   379,  3411,  3410
  4,  3539,   456,  3521, 11593,   379,     2,   380,  3411
  5,  3505, 11591, 11594,  3506,   414,  3409,  3412,   413
  6, 11591, 11592, 11595, 11594,  3409,  3410,  3413,  3412
  7, 11592, 11593, 11596, 11595,  3410,  3411,  3414,  3413
  8, 11593,  3521,  3522, 11596,  3411,   380,   381,  3414
  9,  3506, 11594, 11597,  3507,   413,  3412,  3415,   412
 10, 11594, 11595, 11598, 11597,  3412,  3413,  3416,  3415
 11, 11595, 11596, 11599, 11598,  3413,  3414,  3417,  3416
 12, 11596,  3522,  3523, 11599,  3414,   381,   382,  3417
 13,  3507, 11597, 11600,  3508,   412,  3415,  3418,   411
 14, 11597, 11598, 11601, 11600,  3415,  3416,  3419,  3418
 15, 11598, 11599, 11602, 11601,  3416,  3417,  3420,  3419
 16, 11599,  3523,  3524, 11602,  3417,   382,   383,  3420
 17,  3508, 11600, 11603,  3509,   411,  3418,  3421,   410
 18, 11600, 11601, 11604, 11603,  3418,  3419,  3422,  3421
 19, 11601, 11602, 11605, 11604,  3419,  3420,  3423,  3422
 20, 11602,  3524,  3525, 11605,  3420,   383,   384,  3423
** ... 12304 like lines cut
*Nset, nset=set_Ysym
   89,   90,   93,   96,  109,  110,  111,  112,  133,  134,  135,  136,  149,  150,  151,  152
  249,  250,  254,  256,  259,  260,  265,  267,  271,  272,  277,  279,  283,  284,  289,  291
  295,  296,  300,  302, 1261, 1262, 1263, 1264, 1265, 1266, 1267, 1268, 1269, 1270, 1271, 1272
 1273, 1274, 1275, 1276, 1293, 1294, 1295, 1296, 1297, 1298, 1299, 1300, 1301, 1302, 1303, 1304
 1305, 1306, 1307, 1308, 1328, 1329, 1330, 1334, 1335, 1336, 1459, 1460, 1461, 1462, 1463, 1464
 1465, 1466, 1467, 1468, 1469, 1470, 1471, 1472, 1473, 1474, 1475, 1476, 1477, 1478, 1479, 1480
 1481, 1482, 1483, 1484, 1485, 1486, 1487, 1488, 1489, 1490, 1491, 1492, 1493, 1494, 1495, 1496
 1703, 1704, 1705, 1706, 1707, 1708, 1709, 1710, 1711, 1712, 1713, 1714, 1715, 1716, 1717, 1718
 1719, 1720, 1721, 1722, 1723, 1724, 1725, 1726, 1727, 1728, 1729, 1730, 1731, 1732, 1733, 1734
 1735, 1736, 1737, 1738, 1739, 1740, 1863, 1864, 1865, 1866, 1867, 1868, 1869, 1870, 1871, 1872
 1873, 1874, 1875, 1876, 1877, 1878, 1879, 1880, 1881, 1882, 1883, 1884, 1885, 1886, 1887, 1888
 1889, 1890, 1891, 1892, 1893, 1894, 1895, 1896, 1897, 1898, 1899, 1900, 2599, 2600, 2601, 2602
 2603, 2604, 2605, 2606, 2607, 2626, 2627, 2628, 2629, 2630, 2631, 2632, 2633, 2634, 2635, 2636
 2637, 2638, 2639, 2658, 2659, 2660, 2661, 2662, 2663, 2664, 2665, 2666, 2667, 2668, 2669, 2670
 2671, 2672, 2694, 2695, 2696, 2697, 2698, 2699, 2700, 2701, 2702, 2703, 2704, 2705, 2706, 2707
 2708, 2730, 2731, 2732, 2733, 2734, 2735, 2736, 2737, 2738, 2739, 2740, 2741, 2742, 2743, 2744
 2766, 2767, 2768, 2769, 2770, 2771, 2772, 2773, 2774, 2775, 2776, 2777, 2778, 2779, 2780, 2802
 2803, 2804, 2805, 2806, 2807, 2808, 2809, 2810, 2811, 2812, 2813, 2814, 2815, 2816, 2838, 2839
 2840, 2841, 2842, 2843, 2844, 2845, 2846, 2847, 2848, 2849, 2850, 2851, 2852, 2874, 2875, 2876
 2877, 2878, 2879, 2880, 2881, 2882, 2901, 2902, 2903, 2904, 2905, 2906, 2907, 2908, 2909, 2910
** ... 32 like lines cut
*Elset, elset=set_Ysym
 1565, 1566, 1567, 1568, 1569, 1570, 1571, 1572, 1573, 1574, 1575, 1576, 1577, 1578, 1579, 1580
 1581, 1582, 1583, 1584, 1585, 1586, 1587, 1588, 1589, 1590, 1591, 1592, 1593, 1594, 1595, 1596
 1597, 1598, 1599, 1600, 1601, 1602, 1603, 1604, 1605, 1606, 1607, 1608, 1609, 1610, 1611, 1612
 1613, 1614, 1615, 1616, 1617, 1618, 1619, 1620, 1621, 1622, 1623, 1624, 1625, 1626, 1627, 1628
 1629, 1630, 1631, 1632, 1837, 1838, 1839, 1840, 1841, 1842, 1843, 1844, 1845, 1846, 1847, 1848
 1849, 1850, 1851, 1852, 1853, 1854, 1855, 1856, 1857, 1858, 1859, 1860, 1861, 1862, 1863, 1864
 1865, 1866, 1867, 1868, 1869, 1870, 1871, 1872, 1873, 1874, 1875, 1876, 1877, 1878, 1879, 1880
 1881, 1882, 1883, 1884, 1885, 1886, 1887, 1888, 1889, 1890, 1891, 1892, 1893, 1894, 1895, 1896
 1897, 1898, 1899, 1900, 1901, 1902, 1903, 1904, 2313, 2314, 2315, 2316, 2317, 2318, 2319, 2320
 2321, 2322, 2323, 2324, 2325, 2326, 2327, 2328, 2329, 2330, 2331, 2332, 2333, 2334, 2335, 2336
 2337, 2338, 2339, 2340, 2341, 2342, 2343, 2344, 2345, 2346, 2347, 2348, 2349, 2350, 2351, 2352
 2353, 2354, 2355, 2356, 2357, 2358, 2359, 2360, 2361, 2362, 2363, 2364, 2365, 2366, 2367, 2368
 2369, 2370, 2371, 2372, 2373, 2374, 2375, 2376, 2377, 2378, 2379, 2380, 2585, 2586, 2587, 2588
 2589, 2590, 2591, 2592, 2593, 2594, 2595, 2596, 2597, 2598, 2599, 2600, 2601, 2602, 2603, 2604
 2605, 2606, 2607, 2608, 2609, 2610, 2611, 2612, 2613, 2614, 2615, 2616, 2617, 2618, 2619, 2620
 2621, 2622, 2623, 2624, 2625, 2626, 2627, 2628, 2629, 2630, 2631, 2632, 2633, 2634, 2635, 2636
 2637, 2638, 2639, 2640, 2641, 2642, 2643, 2644, 2645, 2646, 2647, 2648, 2649, 2650, 2651, 2652
 6937, 6938, 6941, 6944, 6946, 6948, 6959, 6960, 6961, 6964, 6984, 6985, 6988, 6991, 6993, 6995
 7006, 7007, 7008, 7011, 7031, 7032, 7035, 7038, 7040, 7042, 7053, 7054, 7055, 7058, 7078, 7079
 7082, 7085, 7087, 7089, 7100, 7101, 7102, 7105, 7125, 7126, 7129, 7132, 7134, 7136, 7147, 7148
** ... 23 like lines cut
*Nset, nset=_PickedSet29, internal, generate
     1,  18718,      1
*Elset, elset=_PickedSet29, internal, generate
     1,  12324,      1
*Nset, nset=set_fixend
    33,    34,    37,    40,    45,    46,    47,    48,   177,   182,   183,   184,   250,   251,   256,   258
   365,   370,   373,   375,   697,   698,   699,   700,   701,   702,   703,   704,   705,   706,   707,   708
   709,   710,   711,   712,   731,   732,   733,   734,   735,   736,   737,   738,   739,   740,   741,   742
   743,   744,   745,   746,   768,   769,   770,   774,   775,   776,   815,   816,   817,   818,   819,   820
   821,   822,   823,   824,   825,   826,   827,   828,   829,   830,   831,   832,   833,   834,   835,   836
   837,   838,   839,   840,   841,   842,   843,   844,   845,   846,   847,   848,   849,   850,   851,   852
  2178,  2179,  2180,  2181,  2182,  2183,  2184,  2185,  2186,  2187,  2188,  2189,  2190,  2191,  2192,  2193
  2194,  2195,  2196,  2197,  2198,  2199,  2200,  2201,  2202,  2203,  2204,  2205,  2206,  2207,  2208,  2209
  2210,  2211,  2212,  2608,  2609,  2610,  2611,  2612,  2613,  2614,  2635,  2636,  2637,  2638,  2639,  2650
  2651,  2652,  2653,  2654,  2655,  2656,  3354,  3355,  3356,  3357,  3358,  3359,  3360,  3361,  3362,  3363
  3364,  3365,  3366,  3367,  3368,  3383,  3384,  3385,  3386,  3387,  3388,  3389,  3390,  3391,  3392,  3393
  3394,  3395,  3396,  3397,  3983,  3984,  3985,  3986,  3987,  3988,  3989,  3990,  3991,  3992,  3993,  3994
  3995,  3996,  3997,  3998,  3999,  4000,  4001,  4002,  4003,  4004,  4005,  4006,  4007,  4008,  4009,  4010
  4011,  4012,  4013,  4014,  4015,  4016,  4017,  4018,  4019,  4020,  4021,  4022,  4023,  4024,  4025,  4026
  4027,  4028,  4029,  4030,  4127,  4128,  4129,  4130,  4131,  4132,  4133,  4134,  4135,  4136,  4137,  4138
  4139,  4140,  4141,  4142,  4143,  4144,  4145,  4146,  4147,  4148,  4149,  4150,  4151,  4152,  4153,  4154
  4155,  4156,  4157,  4158,  4159,  4160,  4161,  4162,  4163,  4164,  4165,  4166,  4167,  4168,  4169,  4170
  4171,  4172,  4173,  4174,  6586,  6587,  6588,  6589,  6590,  6591,  6592,  6593,  6594,  6595,  6596,  6597
  6598,  6599,  6600,  6601,  6602,  6603,  6604,  6605,  6606,  6607,  6608,  6609,  6610,  6611,  6612,  6613
  6614,  6615,  6616,  6617,  6618,  6619,  6620,  6621,  6622,  6623,  6624,  6625,  6626,  6627,  6628,  6629
** ... 9 like lines cut
*Elset, elset=set_fixend
   545,   546,   547,   548,   549,   550,   551,   552,   553,   554,   555,   556,   557,   558,   559,   560
   561,   579,   580,   581,   582,   583,   584,   585,   586,   587,   588,   589,   590,   591,   592,   593
   594,   595,   613,   614,   615,   616,   617,   618,   619,   620,   621,   622,   623,   624,   625,   626
   627,   628,   629,   647,   648,   649,   650,   651,   652,   653,   654,   655,   656,   657,   658,   659
   660,   661,   662,   663,   749,   750,   751,   752,   753,   754,   755,   756,   757,   758,   759,   760
   761,   762,   763,   764,   765,   766,   767,   768,   769,   770,   771,   772,   773,   774,   775,   776
   777,   778,   779,   780,   781,   782,   783,   784,   785,   786,   787,   788,   789,   790,   791,   792
   793,   794,   795,   796,   797,   798,   799,   800,   801,   802,   803,   804,   805,   806,   807,   808
   809,   810,   811,   812,   813,   814,   815,   816,  3275,  3276,  3287,  3289,  3292,  3294,  3297,  3303
  3309,  3310,  3314,  3318,  3320,  3324,  3325,  3326,  3374,  3375,  3386,  3388,  3391,  3393,  3396,  3402
  3408,  3409,  3413,  3417,  3419,  3423,  3424,  3425,  3473,  3474,  3485,  3487,  3490,  3492,  3495,  3501
  3507,  3508,  3512,  3516,  3518,  3522,  3523,  3524,  3572,  3573,  3584,  3586,  3589,  3591,  3594,  3600
  3606,  3607,  3611,  3615,  3617,  3621,  3622,  3623,  3671,  3672,  3683,  3685,  3688,  3690,  3693,  3699
  3705,  3706,  3710,  3714,  3716,  3720,  3721,  3722,  3770,  3771,  3782,  3784,  3787,  3789,  3792,  3798
  3804,  3805,  3809,  3813,  3815,  3819,  3820,  3821,  6939,  6948,  6951,  6954,  6962,  6968,  6969,  6977
  6986,  6995,  6998,  7001,  7009,  7015,  7016,  7024,  7033,  7042,  7045,  7048,  7056,  7062,  7063,  7071
  7080,  7089,  7092,  7095,  7103,  7109,  7110,  7118,  7127,  7136,  7139,  7142,  7150,  7156,  7157,  7165
  7174,  7183,  7186,  7189,  7197,  7203,  7204,  7212, 11741, 11742, 11753, 11755, 11758, 11760, 11763, 11769
 11775, 11776, 11780, 11784, 11786, 11790, 11791, 11792, 11840, 11841, 11852, 11854, 11857, 11859, 11862, 11868
 11874, 11875, 11879, 11883, 11885, 11889, 11890, 11891, 11939, 11940, 11951, 11953, 11956, 11958, 11961, 11967
** ... 4 like lines cut
*Nset, nset=set_loadend
   27,   28,   30,   31,   75,   76,   78,   79,  237,  242,  244,  245,  296,  297,  302,  304
  306,  307,  313,  315,  634,  635,  636,  637,  638,  639,  640,  641,  642,  643,  644,  645
  646,  647,  648,  649,  668,  669,  670,  671,  672,  673,  674,  675,  676,  677,  678,  679
  680,  681,  682,  683,  685,  686,  687,  691,  692,  693, 1114, 1115, 1116, 1117, 1118, 1119
 1120, 1121, 1122, 1123, 1124, 1125, 1126, 1127, 1128, 1129, 1148, 1149, 1150, 1151, 1152, 1153
 1154, 1155, 1156, 1157, 1158, 1159, 1160, 1161, 1162, 1163, 1165, 1166, 1167, 1171, 1172, 1173
 2544, 2545, 2546, 2547, 2548, 2549, 2550, 2551, 2552, 2553, 2554, 2555, 2556, 2557, 2558, 2560
 2561, 2562, 2563, 2564, 2565, 2566, 2567, 2568, 2569, 2570, 2571, 2572, 2573, 2574, 2883, 2884
 2885, 2886, 2887, 2888, 2889, 2910, 2911, 2912, 2913, 2914, 2925, 2926, 2927, 2928, 2929, 2930
 2931, 2934, 2935, 2936, 2937, 2938, 2939, 2940, 2941, 2942, 2943, 2944, 2945, 2946, 2947, 2948
 2949, 2988, 2989, 2990, 2991, 2992, 2996, 2997, 2998, 2999, 3000, 3001, 3002, 3003, 3004, 3005
 3006, 3007, 3008, 3009, 3010, 3011, 3897, 3898, 3899, 3900, 3901, 3902, 3903, 3904, 3905, 3906
 3907, 3908, 3909, 3910, 3911, 3912, 3913, 3914, 3915, 3916, 3917, 3918, 3919, 3920, 3921, 3922
 3923, 3924, 3925, 3926, 3927, 3928, 3929, 3930, 3931, 3932, 3933, 3934, 3935, 3936, 3937, 3938
 3939, 3940, 3941, 3942, 3943, 3944, 4701, 4702, 4703, 4704, 4705, 4706, 4707, 4708, 4709, 4710
 4711, 4712, 4713, 4714, 4715, 4716, 4717, 4718, 4719, 4720, 4721, 4722, 4723, 4724, 4725, 4726
 4727, 4728, 4729, 4730, 4731, 4732, 4733, 4734, 4735, 4736, 4737, 4738, 4739, 4740, 4741, 4742
 4743, 4744, 4745, 4746, 4747, 4748, 8201, 8202, 8203, 8204, 8205, 8206, 8207, 8208, 8209, 8210
 8211, 8212, 8213, 8214, 8215, 8216, 8217, 8218, 8219, 8220, 8221, 8222, 8223, 8224, 8225, 8226
 8227, 8228, 8229, 8230, 8231, 8232, 8233, 8234, 8235, 8236, 8237, 8238, 8239, 8240, 8241, 8242
** ... 10 like lines cut
*Elset, elset=set_loadend
  426,  427,  428,  429,  430,  431,  432,  433,  434,  435,  436,  437,  438,  439,  440,  441
  442,  460,  461,  462,  463,  464,  465,  466,  467,  468,  469,  470,  471,  472,  473,  474
  475,  476,  494,  495,  496,  497,  498,  499,  500,  501,  502,  503,  504,  505,  506,  507
  508,  509,  510,  528,  529,  530,  531,  532,  533,  534,  535,  536,  537,  538,  539,  540
  541,  542,  543,  544, 1242, 1243, 1244, 1245, 1246, 1247, 1248, 1249, 1250, 1251, 1252, 1253
 1254, 1255, 1256, 1257, 1258, 1276, 1277, 1278, 1279, 1280, 1281, 1282, 1283, 1284, 1285, 1286
 1287, 1288, 1289, 1290, 1291, 1292, 1310, 1311, 1312, 1313, 1314, 1315, 1316, 1317, 1318, 1319
 1320, 1321, 1322, 1323, 1324, 1325, 1326, 1344, 1345, 1346, 1347, 1348, 1349, 1350, 1351, 1352
 1353, 1354, 1355, 1356, 1357, 1358, 1359, 1360, 6390, 6391, 6393, 6394, 6396, 6397, 6400, 6403
 6405, 6408, 6411, 6421, 6422, 6423, 6424, 6425, 6485, 6486, 6488, 6489, 6491, 6492, 6495, 6498
 6500, 6503, 6506, 6516, 6517, 6518, 6519, 6520, 6580, 6581, 6583, 6584, 6586, 6587, 6590, 6593
 6595, 6598, 6601, 6611, 6612, 6613, 6614, 6615, 6675, 6676, 6678, 6679, 6681, 6682, 6685, 6688
 6690, 6693, 6696, 6706, 6707, 6708, 6709, 6710, 6770, 6771, 6773, 6774, 6776, 6777, 6780, 6783
 6785, 6788, 6791, 6801, 6802, 6803, 6804, 6805, 6865, 6866, 6868, 6869, 6871, 6872, 6875, 6878
 6880, 6883, 6886, 6896, 6897, 6898, 6899, 6900, 8448, 8449, 8452, 8455, 8468, 8471, 8476, 8478
 8495, 8496, 8499, 8502, 8515, 8518, 8523, 8525, 8542, 8543, 8546, 8549, 8562, 8565, 8570, 8572
 8589, 8590, 8593, 8596, 8609, 8612, 8617, 8619, 8636, 8637, 8640, 8643, 8656, 8659, 8664, 8666
 8683, 8684, 8687, 8690, 8703, 8706, 8711, 8713, 8719, 8726, 8727, 8729, 8730, 8731, 8734, 8737
 8738, 8739, 8741, 8758, 8759, 8760, 8761, 8762, 8764, 8805, 8812, 8813, 8815, 8816, 8817, 8820
 8823, 8824, 8825, 8827, 8844, 8845, 8846, 8847, 8848, 8850, 8891, 8898, 8899, 8901, 8902, 8903
** ... 4 like lines cut
** Section: Section-1
*Solid Section, elset=_PickedSet29, controls=EC-1, material=mat_SS40
,
*End Part
**  
**
** ASSEMBLY
**
*Assembly, name=Assembly
**  
*Instance, name=SS40-1, part=SS40
 1037.823848,   109.289094,           0.
*End Instance
**  
*End Assembly
** 
** ELEMENT CONTROLS
** 
*Section Controls, name=EC-1, ELEMENT DELETION=YES, MAX DEGRADATION=0.98, hourglass=ENHANCED
1., 1., 1.
** 
** MATERIALS
** 
*Material, name=mat_SS40
*Damage Initiation, criterion=DUCTILE
 0.0427247, 0.333333,       0.
*Damage Evolution, type=DISPLACEMENT
 0.0427247,
*Elastic
1190., 0.3
*Plastic
    1.,        0.
  3.06,  8.21e-05
  5.93, 0.0003205
  8.62, 0.0006989
 11.15, 0.0012032
 13.54,  0.001821
  15.8, 0.0025415
 17.94, 0.0033552
 19.97, 0.0042534
 21.91, 0.0052287
 23.75, 0.0062744
  25.5, 0.0073843
 27.18, 0.0085531
 28.78, 0.0097759
 30.32, 0.0110484
  31.8, 0.0123666
 33.22, 0.0137269
 34.58, 0.0151259
  35.9, 0.0165608
 37.17, 0.0180288
** ... 15 like lines cut
** 
** BOUNDARY CONDITIONS
** 
** Name: BC_Ysym Type: Symmetry/Antisymmetry/Encastre
*Boundary
SS40-1.set_Ysym, YSYMM
** Name: BC_fixend Type: Symmetry/Antisymmetry/Encastre
*Boundary
SS40-1.set_fixend, PINNED
** Name: BC_loadend Type: Velocity/Angular velocity
*Boundary, type=VELOCITY
SS40-1.set_loadend, 1, 1
** ----------------------------------------------------------------
** 
** STEP: load
** 
*Step, name=load, nlgeom=YES, inc=500, unsymm=YES
*Static, stabilize, factor=0.01, allsdtol=0, continue=NO
0.5, 40., 1e-05, 1.
** 
** BOUNDARY CONDITIONS
** 
** Name: BC_loadend Type: Velocity/Angular velocity
*Boundary, type=VELOCITY
SS40-1.set_loadend, 1, 1, 0.44
** 
** OUTPUT REQUESTS
** 
*Restart, write, frequency=0
** 
** FIELD OUTPUT: F-Output-1
** 
*Output, field
*Node Output
CF, RF, U
*Element Output, directions=YES
LE, PE, PEEQ, PEMAG, S, STATUS
*Contact Output
CDISP, CSTRESS
** 
** HISTORY OUTPUT: H-Output-1
** 
*Output, history, variable=PRESELECT
*End Step
