*Heading
** Job name: GG3_damage2 Model name: GG3_damage2
** Generated by: Abaqus/CAE 2022
*Preprint, echo=NO, model=NO, history=NO, contact=NO
**
** PARTS
**
*Part, name=PGG3
*Node
      1,   329.841583,  -115.210991,           0.
      2,   329.841583,  -110.459694,           0.
      3,   329.841583,  -110.459694,    2.5999999
      4,   329.841583,  -115.210991,  0.850000024
      5,   329.841583,  -115.210991,         1.75
      6,   329.841583,  -115.210991,    2.5999999
      7,   313.841583,  -110.459694,           0.
      8,   313.841583,  -110.459694,    2.5999999
      9,   313.841583,  -115.210991,    2.5999999
     10,   313.841583,  -115.210991,           0.
     11,   313.841583,  -115.210991,  0.850000024
     12,   313.841583,  -115.210991,         1.75
     13,   313.841583,    -203.2939,    2.5999999
     14,   313.841583,    -193.2939,    2.5999999
     15,   313.841583,    -193.2939,         1.75
     16,   313.841583,    -193.2939,  0.850000024
     17,   313.841583,    -193.2939,           0.
     18,   313.841583,    -203.2939,         1.75
     19,   313.841583,    -203.2939,  0.850000024
     20,   313.841583,    -203.2939,           0.
** ... 7998 like lines cut
*Element, type=C3D8R
 1,  154, 2899, 6969, 2879,    1,  141, 2875,    4
 2, 2899,  164, 2889, 6969,  141,    2,  142, 2875
 3, 2879, 6969, 6970, 2880,    4, 2875, 2876,    5
 4, 6969, 2889, 2890, 6970, 2875,  142,  143, 2876
 5, 2880, 6970, 2904,  153,    5, 2876,  144,    6
 6, 6970, 2890,  163, 2904, 2876,  143,    3,  144
 7,  155, 2900, 6971, 2881,  154, 2899, 6969, 2879
 8, 2900,  165, 2891, 6971, 2899,  164, 2889, 6969
 9, 2881, 6971, 6972, 2882, 2879, 6969, 6970, 2880
10, 6971, 2891, 2892, 6972, 6969, 2889, 2890, 6970
11, 2882, 6972, 2905,  152, 2880, 6970, 2904,  153
12, 6972, 2892,  162, 2905, 6970, 2890,  163, 2904
13,  156, 2901, 6973, 2883,  155, 2900, 6971, 2881
14, 2901,  166, 2893, 6973, 2900,  165, 2891, 6971
15, 2883, 6973, 6974, 2884, 2881, 6971, 6972, 2882
16, 6973, 2893, 2894, 6974, 6971, 2891, 2892, 6972
17, 2884, 6974, 2906,  151, 2882, 6972, 2905,  152
18, 6974, 2894,  161, 2906, 6972, 2892,  162, 2905
19,  157, 2902, 6975, 2885,  156, 2901, 6973, 2883
20, 2902,  167, 2895, 6975, 2901,  166, 2893, 6973
** ... 3940 like lines cut
*Nset, nset=set_fixend
  129,  130,  131,  132, 2635, 2636, 2637, 2638, 2639, 2640, 2641, 2642, 2643, 2644, 2645, 2646
 2647, 2648, 2649, 2650, 2651, 2652, 2653, 2654, 2655, 2656, 2657, 2658, 2659, 2660, 2661, 2662
 2663, 2664, 2665, 2666, 2667, 2668, 2669, 2670, 2671, 2672, 2673, 2674, 2675, 2676, 2677, 2678
 2679, 2680, 2681, 2682, 2683, 2684, 2685, 2686, 2687, 2688, 2689, 2690, 2691, 2692, 2693, 2694
 2695, 2696, 2697, 2698, 2699, 2700, 2701, 2702, 2703, 2704, 2705, 2706, 2707, 2708, 6036, 6037
 6038, 6039, 6040, 6041, 6042, 6043, 6044, 6045, 6046, 6047, 6048, 6049, 6050, 6051, 6052, 6053
 6054, 6055, 6056, 6057, 6058, 6059, 6060, 6061, 6062, 6063, 6064, 6065, 6066, 6067, 6068, 6069
 6070, 6071, 6072, 6073, 6074, 6075, 6076, 6077, 6078, 6079, 6080, 6081, 6082, 6083, 6084, 6085
 6086, 6087, 6088, 6089, 6090, 6091, 6092, 6093, 6094, 6095, 6096, 6097, 6098, 6099, 6100, 6101
 6102, 6103, 6104, 6105, 6106, 6107, 6108, 6109, 6110, 6111, 6112, 6113, 6114
*Elset, elset=set_fixend, generate
 3142,  3258,     1
*Nset, nset=set_Ysym
   29,   30,   31,   32,   33,   34,   35,   36,  101,  104,  121,  124,  125,  128,  129,  130
  133,  134,  137,  138,  209,  210,  211,  212,  213,  214,  215,  216,  217,  218, 1251, 1252
 1253, 1254, 1255, 1256, 1257, 1258, 1259, 1260, 1261, 1262, 1263, 1264, 1265, 1266, 1267, 1268
 1269, 1270, 1271, 1272, 1273, 1274, 1275, 1276, 1277, 1278, 1279, 1280, 1281, 1282, 1283, 1284
 1285, 1286, 1287, 1288, 1289, 1290, 1291, 1292, 1293, 1294, 1295, 1296, 1297, 1298, 1299, 1300
 1301, 1302, 1303, 1304, 1305, 1306, 1307, 1308, 1309, 1310, 1311, 1312, 1313, 1314, 1315, 1316
 1317, 1318, 1319, 1320, 1321, 1322, 1323, 1324, 1325, 1326, 1327, 1328, 1329, 1330, 1331, 1332
 1333, 1334, 1335, 1336, 1337, 1338, 1339, 1340, 1341, 1342, 1343, 1344, 1345, 1346, 1347, 1348
 1349, 1350, 1351, 1352, 1353, 1354, 2335, 2336, 2337, 2338, 2339, 2340, 2341, 2342, 2343, 2344
 2345, 2346, 2347, 2348, 2349, 2350, 2351, 2352, 2353, 2354, 2355, 2356, 2357, 2358, 2359, 2360
 2361, 2362, 2363, 2364, 2365, 2366, 2367, 2368, 2369, 2370, 2371, 2372, 2373, 2374, 2375, 2376
 2377, 2378, 2379, 2380, 2381, 2382, 2383, 2384, 2385, 2386, 2387, 2388, 2389, 2390, 2391, 2392
 2393, 2394, 2395, 2396, 2397, 2398, 2399, 2400, 2401, 2402, 2403, 2404, 2405, 2406, 2407, 2408
 2409, 2410, 2411, 2412, 2413, 2414, 2415, 2416, 2417, 2418, 2419, 2420, 2421, 2422, 2423, 2424
 2425, 2426, 2427, 2428, 2429, 2430, 2431, 2432, 2433, 2434, 2435, 2436, 2437, 2438, 2615, 2616
 2617, 2618, 2619, 2630, 2631, 2632, 2633, 2634, 2635, 2636, 2781, 2782, 2783, 2784, 2785, 2796
 2797, 2798, 2799, 2800, 2801, 2802, 2981, 2982, 2983, 2984, 2985, 2986, 2987, 2988, 2989, 2990
 6475, 6476, 6477, 6478, 6479, 6480, 6481, 6482, 6483, 6484, 6959, 6960, 6961, 6962, 6963, 6964
 6965, 6966, 6967, 6968
*Elset, elset=set_Ysym
  112,  113,  114,  118,  119,  120,  124,  125,  126,  130,  131,  132,  136,  137,  138,  142
  143,  144, 1425, 1427, 1429, 1431, 1433, 1435, 1437, 1439, 1441, 1443, 1445, 1447, 1449, 1451
 1453, 1455, 1457, 1459, 1461, 1463, 1465, 1467, 1469, 1471, 1473, 1475, 1477, 1479, 1481, 1483
 1485, 1487, 1489, 1491, 1493, 1495, 1497, 1499, 1501, 1503, 1505, 1507, 1509, 1511, 1513, 1515
 1517, 1519, 1521, 1523, 1525, 1527, 1529, 2451, 2453, 2455, 2457, 2459, 2461, 2463, 2465, 2467
 2469, 2471, 2473, 2475, 2477, 2479, 2481, 2483, 2485, 2487, 2489, 2491, 2493, 2495, 2497, 2499
 2501, 2503, 2505, 2507, 2509, 2511, 2513, 2515, 2517, 2519, 2521, 2523, 2525, 2527, 2529, 2531
 2533, 2535, 2537, 2539, 2541, 2543, 2545, 2547, 2549, 2551, 2553, 2555, 2569, 2571, 2592, 2686
 2688, 2709, 2803, 2805, 2826, 2920, 2922, 2943, 3037, 3039, 3060, 3154, 3156, 3177, 3259, 3286
 3299, 3376, 3403, 3416, 3493, 3520, 3533, 3610, 3637, 3650, 3727, 3754, 3767, 3844, 3871, 3884
*Nset, nset=set_loadend
  137,  138,  139,  140, 2801, 2802, 2803, 2804, 2805, 2806, 2807, 2808, 2809, 2810, 2811, 2812
 2813, 2814, 2815, 2816, 2817, 2818, 2819, 2820, 2821, 2822, 2823, 2824, 2825, 2826, 2827, 2828
 2829, 2830, 2831, 2832, 2833, 2834, 2835, 2836, 2837, 2838, 2839, 2840, 2841, 2842, 2843, 2844
 2845, 2846, 2847, 2848, 2849, 2850, 2851, 2852, 2853, 2854, 2855, 2856, 2857, 2858, 2859, 2860
 2861, 2862, 2863, 2864, 2865, 2866, 2867, 2868, 2869, 2870, 2871, 2872, 2873, 2874, 6520, 6521
 6522, 6523, 6524, 6525, 6526, 6527, 6528, 6529, 6530, 6531, 6532, 6533, 6534, 6535, 6536, 6537
 6538, 6539, 6540, 6541, 6542, 6543, 6544, 6545, 6546, 6547, 6548, 6549, 6550, 6551, 6552, 6553
 6554, 6555, 6556, 6557, 6558, 6559, 6560, 6561, 6562, 6563, 6564, 6565, 6566, 6567, 6568, 6569
 6570, 6571, 6572, 6573, 6574, 6575, 6576, 6577, 6578, 6579, 6580, 6581, 6582, 6583, 6584, 6585
 6586, 6587, 6588, 6589, 6590, 6591, 6592, 6593, 6594, 6595, 6596, 6597, 6598
*Elset, elset=set_loadend, generate
 3844,  3960,     1
*Nset, nset=_PickedSet34, internal, generate
    1,  8018,     1
*Elset, elset=_PickedSet34, internal, generate
    1,  3960,     1
** Section: Section-1
*Solid Section, elset=_PickedSet34, controls=EC-1, material=mat_GG3
,
*End Part
**  
**
** ASSEMBLY
**
*Assembly, name=Assembly
**  
*Instance, name=PGG3-1, part=PGG3
 -153.841565,   209.304256,           0.
*End Instance
**  
*End Assembly
** 
** ELEMENT CONTROLS
** 
*Section Controls, name=EC-1, ELEMENT DELETION=YES
1., 1., 1.
** 
** MATERIALS
** 
*Material, name=mat_GG3
*Damage Initiation, criterion=DUCTILE
 0.0880075, 0.333333,       0.
*Damage Evolution, type=DISPLACEMENT
 0.137224,
*Elastic
1200., 0.3
*Plastic
    1.,        0.
  3.74, 0.0003517
  7.23,  0.000904
 10.49, 0.0016338
 13.54, 0.0025216
 16.41, 0.0035501
 19.12, 0.0047047
 21.68, 0.0059724
  24.1, 0.0073418
 26.39, 0.0088029
 28.58, 0.0103469
 30.66,  0.011966
 32.64, 0.0136532
 34.54, 0.0154023
 36.36, 0.0172076
  38.1, 0.0190642
 39.77, 0.0209675
 41.38, 0.0229135
 42.93, 0.0248985
 44.43, 0.0269191
** ... 27 like lines cut
** 
** BOUNDARY CONDITIONS
** 
** Name: BC_Ysym Type: Symmetry/Antisymmetry/Encastre
*Boundary
PGG3-1.set_Ysym, YSYMM
** Name: BC_fixend Type: Symmetry/Antisymmetry/Encastre
*Boundary
PGG3-1.set_fixend, PINNED
** Name: BC_load Type: Velocity/Angular velocity
*Boundary, type=VELOCITY
PGG3-1.set_loadend, 1, 1
** ----------------------------------------------------------------
** 
** STEP: load
** 
*Step, name=load, nlgeom=YES, inc=200, unsymm=YES
*Static, stabilize, factor=0.002, allsdtol=0, continue=NO
0.5, 35., 1e-05, 1.
** 
** BOUNDARY CONDITIONS
** 
** Name: BC_load Type: Velocity/Angular velocity
*Boundary, type=VELOCITY
PGG3-1.set_loadend, 1, 1, 1.06667
** 
** OUTPUT REQUESTS
** 
*Restart, write, frequency=0
** 
** FIELD OUTPUT: F-Output-1
** 
*Output, field
*Node Output
CF, RF, U
*Element Output, directions=YES
LE, PE, PEEQ, PEMAG, S, STATUS
*Contact Output
CDISP, CSTRESS
** 
** HISTORY OUTPUT: H-Output-1
** 
*Output, history, variable=PRESELECT
*End Step
